2000 'GENCLS' 1     0.0000       0.0000 /
///////////////////////////// PPC Model BUS: 2 /////////////////////////////
2  'USRBUS'    'SIPIF6'    504  0  111  99  14  111
	2           2001         9001        '1 '       
	0                 0           0         0 
	0                 0           0         1
	1 	           	10            1
	10010             	10             '1 '	
	10023             	23             '1 '	
	10005             	5             '1 '	
	10004             	4             '1 '	
	800             	613             '1 '	
	802             	639             '1 '	
	804             	665             '1 '	
	806             	691             '1 '	
	10089             	89             '1 '	
	0               0             '0 '
	0               0             '0 '
	0               0             '0 '
	808             	717             '1 '	
	0               0             '0 '
	0               0             '0 '
	0               0             '0 '
	0               0             '0 '
	0               0             '0 '
	0               0             '0 '
	0               0             '0 '
	0               0             '0 '
	0               0             '0 '
	0               0             '0 '
	0               0             '0 '
	0               0             '0 '
	0               0             '0 '
	0               0             '0 '
	0               0             '0 '
	0               0             '0 '
	0               0             '0 '
	0               0             '0 '
	0               0             '0 '
 0.025      0.001          1.5           0.00          0.00
 0.82000          0.000          0.0000          0.00000     1.00000
-1.00000           0.0000          0.0000          0.8        -0.8
  0.1             1.5         0.02500         0.001000           1.5000
  999.00         -999.00           1.00          -1.00         0.010000
  0.05            1.15                1000         55.00          55.00
  57.0          59.99           60.01               62.5          65.00
  1.0           0.0000          0.0000            0.50000E-01     0.50000E-01
 0.50000E-01     1000            0.10000          0.15000         0.20000
 0.25000         0.50000         0.67000          0.75000         0.79960
 0.90000         0.94000         0.25000          0.20000         0.15000
 0.10000          0.0000        -0.10000         -0.11500        -0.11600
-0.11170         -0.15000         -0.005          0.005            1.0000
 -6.5600          0.0000          1.1000          0.33000          1.1000
 0.90000         -0.3300          10.0000         -10.0000          10.000
-10.0000		   60                 10            1               1
 0.1               1                  4.44          1.0             -0.1
 0.1               0.2                10            1.0             1
 0.1               1.0                4.44          1.0             -0.1
 0.1               0.45               -0.45         9999 /
 
 //////////////////////// Sungrow Inverter BUS: 10010 /////////////////////////////
10010 'USRMDL' 1 'SGCVTF0131101' 101 1 20 90 60 200
	20	1	1	4	10010		0	2	3	1	0
	0	1	1	0	1		1	0	0	17	'WAUX'
	60.0		30.0			0.01		0.0			0.0			0.0		0.0		0.0		0.0		0.0
	0.900	1800.00		0.850	10.00		0.80			10.0		0.20		10.0		0.20		10.0
	1.100	1800.00		1.150	10.00		1.200		2.00		1.200	2.0		1.200	2.0
	58.700	1800.00		57.400	30.00		57.00		20.00	57.00	20.00	57.00	20.0
	61.00	1800.00		61.60	30.00		62.50		13.00	62.50	13.00	62.50	13.0
	57.00	63.00		59.82	60.18		57.0			59.8		60.2		62.5 	0.0		0.0
	0.0		0.0			0.0		0.0			0.0			0.0		0.90		0.98	 	1.02		1.2
	0.66		0.0 			0		-0.66			0.9			1.1		2.0		0.9		2.0		1.1
	0.417	0.2			1.0		0.4166		0.2			1.0		0.0		1.052	0.0		0.0/
10010  'USRMDL'      1      'SIAUX1'     107   0  5  9   2  4
	2       'SIPIF6'      71      15    0
	0.005        0.005      1.0000         1        1          -1       1         -1   4.4/
	//////////////////////// Sungrow Inverter BUS: 10011 /////////////////////////////
10011 'USRMDL' 1 'SGCVTF0131101' 101 1 20 90 60 200
	20	1	1	4	10011		0	2	3	1	0
	0	1	1	0	1		1	0	0	17	'WAUX'
	60.0		30.0			0.01		0.0			0.0			0.0		0.0		0.0		0.0		0.0
	0.900	1800.00		0.850	10.00		0.80			10.0		0.20		10.0		0.20		10.0
	1.100	1800.00		1.150	10.00		1.200		2.00		1.200	2.0		1.200	2.0
	58.700	1800.00		57.400	30.00		57.00		20.00	57.00	20.00	57.00	20.0
	61.00	1800.00		61.60	30.00		62.50		13.00	62.50	13.00	62.50	13.0
	57.00	63.00		59.82	60.18		57.0			59.8		60.2		62.5 	0.0		0.0
	0.0		0.0			0.0		0.0			0.0			0.0		0.90		0.98	 	1.02		1.2
	0.66		0.0 			0		-0.66			0.9			1.1		2.0		0.9		2.0		1.1
	0.417	0.2			1.0		0.4166		0.2			1.0		0.0		1.052	0.0		0.0/
10011  'USRMDL'      1      'SIAUX1'     107   0  5  9   2  4
	2       'SIPIF6'      71      15    0
	0.005        0.005      1.0000         1        1          -1       1         -1   4.4/
	//////////////////////// Sungrow Inverter BUS: 10012 /////////////////////////////
10012 'USRMDL' 1 'SGCVTF0131101' 101 1 20 90 60 200
	20	1	1	4	10012		0	2	3	1	0
	0	1	1	0	1		1	0	0	17	'WAUX'
	60.0		30.0			0.01		0.0			0.0			0.0		0.0		0.0		0.0		0.0
	0.900	1800.00		0.850	10.00		0.80			10.0		0.20		10.0		0.20		10.0
	1.100	1800.00		1.150	10.00		1.200		2.00		1.200	2.0		1.200	2.0
	58.700	1800.00		57.400	30.00		57.00		20.00	57.00	20.00	57.00	20.0
	61.00	1800.00		61.60	30.00		62.50		13.00	62.50	13.00	62.50	13.0
	57.00	63.00		59.82	60.18		57.0			59.8		60.2		62.5 	0.0		0.0
	0.0		0.0			0.0		0.0			0.0			0.0		0.90		0.98	 	1.02		1.2
	0.66		0.0 			0		-0.66			0.9			1.1		2.0		0.9		2.0		1.1
	0.417	0.2			1.0		0.4166		0.2			1.0		0.0		1.052	0.0		0.0/
10012  'USRMDL'      1      'SIAUX1'     107   0  5  9   2  4
	2       'SIPIF6'      71      15    0
	0.005        0.005      1.0000         1        1          -1       1         -1   4.4/
	//////////////////////// Sungrow Inverter BUS: 10013 /////////////////////////////
10013 'USRMDL' 1 'SGCVTF0131101' 101 1 20 90 60 200
	20	1	1	4	10013		0	2	3	1	0
	0	1	1	0	1		1	0	0	17	'WAUX'
	60.0		30.0			0.01		0.0			0.0			0.0		0.0		0.0		0.0		0.0
	0.900	1800.00		0.850	10.00		0.80			10.0		0.20		10.0		0.20		10.0
	1.100	1800.00		1.150	10.00		1.200		2.00		1.200	2.0		1.200	2.0
	58.700	1800.00		57.400	30.00		57.00		20.00	57.00	20.00	57.00	20.0
	61.00	1800.00		61.60	30.00		62.50		13.00	62.50	13.00	62.50	13.0
	57.00	63.00		59.82	60.18		57.0			59.8		60.2		62.5 	0.0		0.0
	0.0		0.0			0.0		0.0			0.0			0.0		0.90		0.98	 	1.02		1.2
	0.66		0.0 			0		-0.66			0.9			1.1		2.0		0.9		2.0		1.1
	0.417	0.2			1.0		0.4166		0.2			1.0		0.0		1.052	0.0		0.0/
10013  'USRMDL'      1      'SIAUX1'     107   0  5  9   2  4
	2       'SIPIF6'      71      15    0
	0.005        0.005      1.0000         1        1          -1       1         -1   4.4/
	//////////////////////// Sungrow Inverter BUS: 10015 /////////////////////////////
10015 'USRMDL' 1 'SGCVTF0131101' 101 1 20 90 60 200
	20	1	1	4	10015		0	2	3	1	0
	0	1	1	0	1		1	0	0	17	'WAUX'
	60.0		30.0			0.01		0.0			0.0			0.0		0.0		0.0		0.0		0.0
	0.900	1800.00		0.850	10.00		0.80			10.0		0.20		10.0		0.20		10.0
	1.100	1800.00		1.150	10.00		1.200		2.00		1.200	2.0		1.200	2.0
	58.700	1800.00		57.400	30.00		57.00		20.00	57.00	20.00	57.00	20.0
	61.00	1800.00		61.60	30.00		62.50		13.00	62.50	13.00	62.50	13.0
	57.00	63.00		59.82	60.18		57.0			59.8		60.2		62.5 	0.0		0.0
	0.0		0.0			0.0		0.0			0.0			0.0		0.90		0.98	 	1.02		1.2
	0.66		0.0 			0		-0.66			0.9			1.1		2.0		0.9		2.0		1.1
	0.417	0.2			1.0		0.4166		0.2			1.0		0.0		1.052	0.0		0.0/
10015  'USRMDL'      1      'SIAUX1'     107   0  5  9   2  4
	2       'SIPIF6'      71      15    0
	0.005        0.005      1.0000         1        1          -1       1         -1   4.4/
	//////////////////////// Sungrow Inverter BUS: 10016 /////////////////////////////
10016 'USRMDL' 1 'SGCVTF0131101' 101 1 20 90 60 200
	20	1	1	4	10016		0	2	3	1	0
	0	1	1	0	1		1	0	0	17	'WAUX'
	60.0		30.0			0.01		0.0			0.0			0.0		0.0		0.0		0.0		0.0
	0.900	1800.00		0.850	10.00		0.80			10.0		0.20		10.0		0.20		10.0
	1.100	1800.00		1.150	10.00		1.200		2.00		1.200	2.0		1.200	2.0
	58.700	1800.00		57.400	30.00		57.00		20.00	57.00	20.00	57.00	20.0
	61.00	1800.00		61.60	30.00		62.50		13.00	62.50	13.00	62.50	13.0
	57.00	63.00		59.82	60.18		57.0			59.8		60.2		62.5 	0.0		0.0
	0.0		0.0			0.0		0.0			0.0			0.0		0.90		0.98	 	1.02		1.2
	0.66		0.0 			0		-0.66			0.9			1.1		2.0		0.9		2.0		1.1
	0.417	0.2			1.0		0.4166		0.2			1.0		0.0		1.052	0.0		0.0/
10016  'USRMDL'      1      'SIAUX1'     107   0  5  9   2  4
	2       'SIPIF6'      71      15    0
	0.005        0.005      1.0000         1        1          -1       1         -1   4.4/
	//////////////////////// Sungrow Inverter BUS: 10017 /////////////////////////////
10017 'USRMDL' 1 'SGCVTF0131101' 101 1 20 90 60 200
	20	1	1	4	10017		0	2	3	1	0
	0	1	1	0	1		1	0	0	17	'WAUX'
	60.0		30.0			0.01		0.0			0.0			0.0		0.0		0.0		0.0		0.0
	0.900	1800.00		0.850	10.00		0.80			10.0		0.20		10.0		0.20		10.0
	1.100	1800.00		1.150	10.00		1.200		2.00		1.200	2.0		1.200	2.0
	58.700	1800.00		57.400	30.00		57.00		20.00	57.00	20.00	57.00	20.0
	61.00	1800.00		61.60	30.00		62.50		13.00	62.50	13.00	62.50	13.0
	57.00	63.00		59.82	60.18		57.0			59.8		60.2		62.5 	0.0		0.0
	0.0		0.0			0.0		0.0			0.0			0.0		0.90		0.98	 	1.02		1.2
	0.66		0.0 			0		-0.66			0.9			1.1		2.0		0.9		2.0		1.1
	0.417	0.2			1.0		0.4166		0.2			1.0		0.0		1.052	0.0		0.0/
10017  'USRMDL'      1      'SIAUX1'     107   0  5  9   2  4
	2       'SIPIF6'      71      15    0
	0.005        0.005      1.0000         1        1          -1       1         -1   4.4/
	//////////////////////// Sungrow Inverter BUS: 10018 /////////////////////////////
10018 'USRMDL' 1 'SGCVTF0131101' 101 1 20 90 60 200
	20	1	1	4	10018		0	2	3	1	0
	0	1	1	0	1		1	0	0	17	'WAUX'
	60.0		30.0			0.01		0.0			0.0			0.0		0.0		0.0		0.0		0.0
	0.900	1800.00		0.850	10.00		0.80			10.0		0.20		10.0		0.20		10.0
	1.100	1800.00		1.150	10.00		1.200		2.00		1.200	2.0		1.200	2.0
	58.700	1800.00		57.400	30.00		57.00		20.00	57.00	20.00	57.00	20.0
	61.00	1800.00		61.60	30.00		62.50		13.00	62.50	13.00	62.50	13.0
	57.00	63.00		59.82	60.18		57.0			59.8		60.2		62.5 	0.0		0.0
	0.0		0.0			0.0		0.0			0.0			0.0		0.90		0.98	 	1.02		1.2
	0.66		0.0 			0		-0.66			0.9			1.1		2.0		0.9		2.0		1.1
	0.417	0.2			1.0		0.4166		0.2			1.0		0.0		1.052	0.0		0.0/
10018  'USRMDL'      1      'SIAUX1'     107   0  5  9   2  4
	2       'SIPIF6'      71      15    0
	0.005        0.005      1.0000         1        1          -1       1         -1   4.4/
	//////////////////////// Sungrow Inverter BUS: 10019 /////////////////////////////
10019 'USRMDL' 1 'SGCVTF0131101' 101 1 20 90 60 200
	20	1	1	4	10019		0	2	3	1	0
	0	1	1	0	1		1	0	0	17	'WAUX'
	60.0		30.0			0.01		0.0			0.0			0.0		0.0		0.0		0.0		0.0
	0.900	1800.00		0.850	10.00		0.80			10.0		0.20		10.0		0.20		10.0
	1.100	1800.00		1.150	10.00		1.200		2.00		1.200	2.0		1.200	2.0
	58.700	1800.00		57.400	30.00		57.00		20.00	57.00	20.00	57.00	20.0
	61.00	1800.00		61.60	30.00		62.50		13.00	62.50	13.00	62.50	13.0
	57.00	63.00		59.82	60.18		57.0			59.8		60.2		62.5 	0.0		0.0
	0.0		0.0			0.0		0.0			0.0			0.0		0.90		0.98	 	1.02		1.2
	0.66		0.0 			0		-0.66			0.9			1.1		2.0		0.9		2.0		1.1
	0.417	0.2			1.0		0.4166		0.2			1.0		0.0		1.052	0.0		0.0/
10019  'USRMDL'      1      'SIAUX1'     107   0  5  9   2  4
	2       'SIPIF6'      71      15    0
	0.005        0.005      1.0000         1        1          -1       1         -1   4.4/
	//////////////////////// Sungrow Inverter BUS: 10020 /////////////////////////////
10020 'USRMDL' 1 'SGCVTF0131101' 101 1 20 90 60 200
	20	1	1	4	10020		0	2	3	1	0
	0	1	1	0	1		1	0	0	17	'WAUX'
	60.0		30.0			0.01		0.0			0.0			0.0		0.0		0.0		0.0		0.0
	0.900	1800.00		0.850	10.00		0.80			10.0		0.20		10.0		0.20		10.0
	1.100	1800.00		1.150	10.00		1.200		2.00		1.200	2.0		1.200	2.0
	58.700	1800.00		57.400	30.00		57.00		20.00	57.00	20.00	57.00	20.0
	61.00	1800.00		61.60	30.00		62.50		13.00	62.50	13.00	62.50	13.0
	57.00	63.00		59.82	60.18		57.0			59.8		60.2		62.5 	0.0		0.0
	0.0		0.0			0.0		0.0			0.0			0.0		0.90		0.98	 	1.02		1.2
	0.66		0.0 			0		-0.66			0.9			1.1		2.0		0.9		2.0		1.1
	0.417	0.2			1.0		0.4166		0.2			1.0		0.0		1.052	0.0		0.0/
10020  'USRMDL'      1      'SIAUX1'     107   0  5  9   2  4
	2       'SIPIF6'      71      15    0
	0.005        0.005      1.0000         1        1          -1       1         -1   4.4/
	//////////////////////// Sungrow Inverter BUS: 10021 /////////////////////////////
10021 'USRMDL' 1 'SGCVTF0131101' 101 1 20 90 60 200
	20	1	1	4	10021		0	2	3	1	0
	0	1	1	0	1		1	0	0	17	'WAUX'
	60.0		30.0			0.01		0.0			0.0			0.0		0.0		0.0		0.0		0.0
	0.900	1800.00		0.850	10.00		0.80			10.0		0.20		10.0		0.20		10.0
	1.100	1800.00		1.150	10.00		1.200		2.00		1.200	2.0		1.200	2.0
	58.700	1800.00		57.400	30.00		57.00		20.00	57.00	20.00	57.00	20.0
	61.00	1800.00		61.60	30.00		62.50		13.00	62.50	13.00	62.50	13.0
	57.00	63.00		59.82	60.18		57.0			59.8		60.2		62.5 	0.0		0.0
	0.0		0.0			0.0		0.0			0.0			0.0		0.90		0.98	 	1.02		1.2
	0.66		0.0 			0		-0.66			0.9			1.1		2.0		0.9		2.0		1.1
	0.417	0.2			1.0		0.4166		0.2			1.0		0.0		1.052	0.0		0.0/
10021  'USRMDL'      1      'SIAUX1'     107   0  5  9   2  4
	2       'SIPIF6'      71      15    0
	0.005        0.005      1.0000         1        1          -1       1         -1   4.4/
	//////////////////////// Sungrow Inverter BUS: 10022 /////////////////////////////
10022 'USRMDL' 1 'SGCVTF0131101' 101 1 20 90 60 200
	20	1	1	4	10022		0	2	3	1	0
	0	1	1	0	1		1	0	0	17	'WAUX'
	60.0		30.0			0.01		0.0			0.0			0.0		0.0		0.0		0.0		0.0
	0.900	1800.00		0.850	10.00		0.80			10.0		0.20		10.0		0.20		10.0
	1.100	1800.00		1.150	10.00		1.200		2.00		1.200	2.0		1.200	2.0
	58.700	1800.00		57.400	30.00		57.00		20.00	57.00	20.00	57.00	20.0
	61.00	1800.00		61.60	30.00		62.50		13.00	62.50	13.00	62.50	13.0
	57.00	63.00		59.82	60.18		57.0			59.8		60.2		62.5 	0.0		0.0
	0.0		0.0			0.0		0.0			0.0			0.0		0.90		0.98	 	1.02		1.2
	0.66		0.0 			0		-0.66			0.9			1.1		2.0		0.9		2.0		1.1
	0.417	0.2			1.0		0.4166		0.2			1.0		0.0		1.052	0.0		0.0/
10022  'USRMDL'      1      'SIAUX1'     107   0  5  9   2  4
	2       'SIPIF6'      71      15    0
	0.005        0.005      1.0000         1        1          -1       1         -1   4.4/
	//////////////////////// Sungrow Inverter BUS: 10132 /////////////////////////////
10132 'USRMDL' 1 'SGCVTF0131101' 101 1 20 90 60 200
	20	1	1	4	10132		0	2	3	1	0
	0	1	1	0	1		1	0	0	17	'WAUX'
	60.0		30.0			0.01		0.0			0.0			0.0		0.0		0.0		0.0		0.0
	0.900	1800.00		0.850	10.00		0.80			10.0		0.20		10.0		0.20		10.0
	1.100	1800.00		1.150	10.00		1.200		2.00		1.200	2.0		1.200	2.0
	58.700	1800.00		57.400	30.00		57.00		20.00	57.00	20.00	57.00	20.0
	61.00	1800.00		61.60	30.00		62.50		13.00	62.50	13.00	62.50	13.0
	57.00	63.00		59.82	60.18		57.0			59.8		60.2		62.5 	0.0		0.0
	0.0		0.0			0.0		0.0			0.0			0.0		0.90		0.98	 	1.02		1.2
	0.66		0.0 			0		-0.66			0.9			1.1		2.0		0.9		2.0		1.1
	0.417	0.2			1.0		0.4166		0.2			1.0		0.0		1.052	0.0		0.0/
10132  'USRMDL'      1      'SIAUX1'     107   0  5  9   2  4
	2       'SIPIF6'      71      15    0
	0.005        0.005      1.0000         1        1          -1       1         -1   4.4/
	//////////////////////// Sungrow Inverter BUS: 10133 /////////////////////////////
10133 'USRMDL' 1 'SGCVTF0131101' 101 1 20 90 60 200
	20	1	1	4	10133		0	2	3	1	0
	0	1	1	0	1		1	0	0	17	'WAUX'
	60.0		30.0			0.01		0.0			0.0			0.0		0.0		0.0		0.0		0.0
	0.900	1800.00		0.850	10.00		0.80			10.0		0.20		10.0		0.20		10.0
	1.100	1800.00		1.150	10.00		1.200		2.00		1.200	2.0		1.200	2.0
	58.700	1800.00		57.400	30.00		57.00		20.00	57.00	20.00	57.00	20.0
	61.00	1800.00		61.60	30.00		62.50		13.00	62.50	13.00	62.50	13.0
	57.00	63.00		59.82	60.18		57.0			59.8		60.2		62.5 	0.0		0.0
	0.0		0.0			0.0		0.0			0.0			0.0		0.90		0.98	 	1.02		1.2
	0.66		0.0 			0		-0.66			0.9			1.1		2.0		0.9		2.0		1.1
	0.417	0.2			1.0		0.4166		0.2			1.0		0.0		1.052	0.0		0.0/
10133  'USRMDL'      1      'SIAUX1'     107   0  5  9   2  4
	2       'SIPIF6'      71      15    0
	0.005        0.005      1.0000         1        1          -1       1         -1   4.4/
	//////////////////////// Sungrow Inverter BUS: 10135 /////////////////////////////
10135 'USRMDL' 1 'SGCVTF0131101' 101 1 20 90 60 200
	20	1	1	4	10135		0	2	3	1	0
	0	1	1	0	1		1	0	0	17	'WAUX'
	60.0		30.0			0.01		0.0			0.0			0.0		0.0		0.0		0.0		0.0
	0.900	1800.00		0.850	10.00		0.80			10.0		0.20		10.0		0.20		10.0
	1.100	1800.00		1.150	10.00		1.200		2.00		1.200	2.0		1.200	2.0
	58.700	1800.00		57.400	30.00		57.00		20.00	57.00	20.00	57.00	20.0
	61.00	1800.00		61.60	30.00		62.50		13.00	62.50	13.00	62.50	13.0
	57.00	63.00		59.82	60.18		57.0			59.8		60.2		62.5 	0.0		0.0
	0.0		0.0			0.0		0.0			0.0			0.0		0.90		0.98	 	1.02		1.2
	0.66		0.0 			0		-0.66			0.9			1.1		2.0		0.9		2.0		1.1
	0.417	0.2			1.0		0.4166		0.2			1.0		0.0		1.052	0.0		0.0/
10135  'USRMDL'      1      'SIAUX1'     107   0  5  9   2  4
	2       'SIPIF6'      71      15    0
	0.005        0.005      1.0000         1        1          -1       1         -1   4.4/
	//////////////////////// Sungrow Inverter BUS: 10136 /////////////////////////////
10136 'USRMDL' 1 'SGCVTF0131101' 101 1 20 90 60 200
	20	1	1	4	10136		0	2	3	1	0
	0	1	1	0	1		1	0	0	17	'WAUX'
	60.0		30.0			0.01		0.0			0.0			0.0		0.0		0.0		0.0		0.0
	0.900	1800.00		0.850	10.00		0.80			10.0		0.20		10.0		0.20		10.0
	1.100	1800.00		1.150	10.00		1.200		2.00		1.200	2.0		1.200	2.0
	58.700	1800.00		57.400	30.00		57.00		20.00	57.00	20.00	57.00	20.0
	61.00	1800.00		61.60	30.00		62.50		13.00	62.50	13.00	62.50	13.0
	57.00	63.00		59.82	60.18		57.0			59.8		60.2		62.5 	0.0		0.0
	0.0		0.0			0.0		0.0			0.0			0.0		0.90		0.98	 	1.02		1.2
	0.66		0.0 			0		-0.66			0.9			1.1		2.0		0.9		2.0		1.1
	0.417	0.2			1.0		0.4166		0.2			1.0		0.0		1.052	0.0		0.0/
10136  'USRMDL'      1      'SIAUX1'     107   0  5  9   2  4
	2       'SIPIF6'      71      15    0
	0.005        0.005      1.0000         1        1          -1       1         -1   4.4/
	//////////////////////// Sungrow Inverter BUS: 10137 /////////////////////////////
10137 'USRMDL' 1 'SGCVTF0131101' 101 1 20 90 60 200
	20	1	1	4	10137		0	2	3	1	0
	0	1	1	0	1		1	0	0	17	'WAUX'
	60.0		30.0			0.01		0.0			0.0			0.0		0.0		0.0		0.0		0.0
	0.900	1800.00		0.850	10.00		0.80			10.0		0.20		10.0		0.20		10.0
	1.100	1800.00		1.150	10.00		1.200		2.00		1.200	2.0		1.200	2.0
	58.700	1800.00		57.400	30.00		57.00		20.00	57.00	20.00	57.00	20.0
	61.00	1800.00		61.60	30.00		62.50		13.00	62.50	13.00	62.50	13.0
	57.00	63.00		59.82	60.18		57.0			59.8		60.2		62.5 	0.0		0.0
	0.0		0.0			0.0		0.0			0.0			0.0		0.90		0.98	 	1.02		1.2
	0.66		0.0 			0		-0.66			0.9			1.1		2.0		0.9		2.0		1.1
	0.417	0.2			1.0		0.4166		0.2			1.0		0.0		1.052	0.0		0.0/
10137  'USRMDL'      1      'SIAUX1'     107   0  5  9   2  4
	2       'SIPIF6'      71      15    0
	0.005        0.005      1.0000         1        1          -1       1         -1   4.4/
	//////////////////////// Sungrow Inverter BUS: 10138 /////////////////////////////
10138 'USRMDL' 1 'SGCVTF0131101' 101 1 20 90 60 200
	20	1	1	4	10138		0	2	3	1	0
	0	1	1	0	1		1	0	0	17	'WAUX'
	60.0		30.0			0.01		0.0			0.0			0.0		0.0		0.0		0.0		0.0
	0.900	1800.00		0.850	10.00		0.80			10.0		0.20		10.0		0.20		10.0
	1.100	1800.00		1.150	10.00		1.200		2.00		1.200	2.0		1.200	2.0
	58.700	1800.00		57.400	30.00		57.00		20.00	57.00	20.00	57.00	20.0
	61.00	1800.00		61.60	30.00		62.50		13.00	62.50	13.00	62.50	13.0
	57.00	63.00		59.82	60.18		57.0			59.8		60.2		62.5 	0.0		0.0
	0.0		0.0			0.0		0.0			0.0			0.0		0.90		0.98	 	1.02		1.2
	0.66		0.0 			0		-0.66			0.9			1.1		2.0		0.9		2.0		1.1
	0.417	0.2			1.0		0.4166		0.2			1.0		0.0		1.052	0.0		0.0/
10138  'USRMDL'      1      'SIAUX1'     107   0  5  9   2  4
	2       'SIPIF6'      71      15    0
	0.005        0.005      1.0000         1        1          -1       1         -1   4.4/
	//////////////////////// Sungrow Inverter BUS: 10139 /////////////////////////////
10139 'USRMDL' 1 'SGCVTF0131101' 101 1 20 90 60 200
	20	1	1	4	10139		0	2	3	1	0
	0	1	1	0	1		1	0	0	17	'WAUX'
	60.0		30.0			0.01		0.0			0.0			0.0		0.0		0.0		0.0		0.0
	0.900	1800.00		0.850	10.00		0.80			10.0		0.20		10.0		0.20		10.0
	1.100	1800.00		1.150	10.00		1.200		2.00		1.200	2.0		1.200	2.0
	58.700	1800.00		57.400	30.00		57.00		20.00	57.00	20.00	57.00	20.0
	61.00	1800.00		61.60	30.00		62.50		13.00	62.50	13.00	62.50	13.0
	57.00	63.00		59.82	60.18		57.0			59.8		60.2		62.5 	0.0		0.0
	0.0		0.0			0.0		0.0			0.0			0.0		0.90		0.98	 	1.02		1.2
	0.66		0.0 			0		-0.66			0.9			1.1		2.0		0.9		2.0		1.1
	0.417	0.2			1.0		0.4166		0.2			1.0		0.0		1.052	0.0		0.0/
10139  'USRMDL'      1      'SIAUX1'     107   0  5  9   2  4
	2       'SIPIF6'      71      15    0
	0.005        0.005      1.0000         1        1          -1       1         -1   4.4/
	//////////////////////// Sungrow Inverter BUS: 10140 /////////////////////////////
10140 'USRMDL' 1 'SGCVTF0131101' 101 1 20 90 60 200
	20	1	1	4	10140		0	2	3	1	0
	0	1	1	0	1		1	0	0	17	'WAUX'
	60.0		30.0			0.01		0.0			0.0			0.0		0.0		0.0		0.0		0.0
	0.900	1800.00		0.850	10.00		0.80			10.0		0.20		10.0		0.20		10.0
	1.100	1800.00		1.150	10.00		1.200		2.00		1.200	2.0		1.200	2.0
	58.700	1800.00		57.400	30.00		57.00		20.00	57.00	20.00	57.00	20.0
	61.00	1800.00		61.60	30.00		62.50		13.00	62.50	13.00	62.50	13.0
	57.00	63.00		59.82	60.18		57.0			59.8		60.2		62.5 	0.0		0.0
	0.0		0.0			0.0		0.0			0.0			0.0		0.90		0.98	 	1.02		1.2
	0.66		0.0 			0		-0.66			0.9			1.1		2.0		0.9		2.0		1.1
	0.417	0.2			1.0		0.4166		0.2			1.0		0.0		1.052	0.0		0.0/
10140  'USRMDL'      1      'SIAUX1'     107   0  5  9   2  4
	2       'SIPIF6'      71      15    0
	0.005        0.005      1.0000         1        1          -1       1         -1   4.4/
	//////////////////////// Sungrow Inverter BUS: 10141 /////////////////////////////
10141 'USRMDL' 1 'SGCVTF0131101' 101 1 20 90 60 200
	20	1	1	4	10141		0	2	3	1	0
	0	1	1	0	1		1	0	0	17	'WAUX'
	60.0		30.0			0.01		0.0			0.0			0.0		0.0		0.0		0.0		0.0
	0.900	1800.00		0.850	10.00		0.80			10.0		0.20		10.0		0.20		10.0
	1.100	1800.00		1.150	10.00		1.200		2.00		1.200	2.0		1.200	2.0
	58.700	1800.00		57.400	30.00		57.00		20.00	57.00	20.00	57.00	20.0
	61.00	1800.00		61.60	30.00		62.50		13.00	62.50	13.00	62.50	13.0
	57.00	63.00		59.82	60.18		57.0			59.8		60.2		62.5 	0.0		0.0
	0.0		0.0			0.0		0.0			0.0			0.0		0.90		0.98	 	1.02		1.2
	0.66		0.0 			0		-0.66			0.9			1.1		2.0		0.9		2.0		1.1
	0.417	0.2			1.0		0.4166		0.2			1.0		0.0		1.052	0.0		0.0/
10141  'USRMDL'      1      'SIAUX1'     107   0  5  9   2  4
	2       'SIPIF6'      71      15    0
	0.005        0.005      1.0000         1        1          -1       1         -1   4.4/
	//////////////////////// Sungrow Inverter BUS: 10142 /////////////////////////////
10142 'USRMDL' 1 'SGCVTF0131101' 101 1 20 90 60 200
	20	1	1	4	10142		0	2	3	1	0
	0	1	1	0	1		1	0	0	17	'WAUX'
	60.0		30.0			0.01		0.0			0.0			0.0		0.0		0.0		0.0		0.0
	0.900	1800.00		0.850	10.00		0.80			10.0		0.20		10.0		0.20		10.0
	1.100	1800.00		1.150	10.00		1.200		2.00		1.200	2.0		1.200	2.0
	58.700	1800.00		57.400	30.00		57.00		20.00	57.00	20.00	57.00	20.0
	61.00	1800.00		61.60	30.00		62.50		13.00	62.50	13.00	62.50	13.0
	57.00	63.00		59.82	60.18		57.0			59.8		60.2		62.5 	0.0		0.0
	0.0		0.0			0.0		0.0			0.0			0.0		0.90		0.98	 	1.02		1.2
	0.66		0.0 			0		-0.66			0.9			1.1		2.0		0.9		2.0		1.1
	0.417	0.2			1.0		0.4166		0.2			1.0		0.0		1.052	0.0		0.0/
10142  'USRMDL'      1      'SIAUX1'     107   0  5  9   2  4
	2       'SIPIF6'      71      15    0
	0.005        0.005      1.0000         1        1          -1       1         -1   4.4/
	//////////////////////// Sungrow Inverter BUS: 10143 /////////////////////////////
10143 'USRMDL' 1 'SGCVTF0131101' 101 1 20 90 60 200
	20	1	1	4	10143		0	2	3	1	0
	0	1	1	0	1		1	0	0	17	'WAUX'
	60.0		30.0			0.01		0.0			0.0			0.0		0.0		0.0		0.0		0.0
	0.900	1800.00		0.850	10.00		0.80			10.0		0.20		10.0		0.20		10.0
	1.100	1800.00		1.150	10.00		1.200		2.00		1.200	2.0		1.200	2.0
	58.700	1800.00		57.400	30.00		57.00		20.00	57.00	20.00	57.00	20.0
	61.00	1800.00		61.60	30.00		62.50		13.00	62.50	13.00	62.50	13.0
	57.00	63.00		59.82	60.18		57.0			59.8		60.2		62.5 	0.0		0.0
	0.0		0.0			0.0		0.0			0.0			0.0		0.90		0.98	 	1.02		1.2
	0.66		0.0 			0		-0.66			0.9			1.1		2.0		0.9		2.0		1.1
	0.417	0.2			1.0		0.4166		0.2			1.0		0.0		1.052	0.0		0.0/
10143  'USRMDL'      1      'SIAUX1'     107   0  5  9   2  4
	2       'SIPIF6'      71      15    0
	0.005        0.005      1.0000         1        1          -1       1         -1   4.4/
	//////////////////////// Sungrow Inverter BUS: 10147 /////////////////////////////
10147 'USRMDL' 1 'SGCVTF0131101' 101 1 20 90 60 200
	20	1	1	4	10147		0	2	3	1	0
	0	1	1	0	1		1	0	0	17	'WAUX'
	60.0		30.0			0.01		0.0			0.0			0.0		0.0		0.0		0.0		0.0
	0.900	1800.00		0.850	10.00		0.80			10.0		0.20		10.0		0.20		10.0
	1.100	1800.00		1.150	10.00		1.200		2.00		1.200	2.0		1.200	2.0
	58.700	1800.00		57.400	30.00		57.00		20.00	57.00	20.00	57.00	20.0
	61.00	1800.00		61.60	30.00		62.50		13.00	62.50	13.00	62.50	13.0
	57.00	63.00		59.82	60.18		57.0			59.8		60.2		62.5 	0.0		0.0
	0.0		0.0			0.0		0.0			0.0			0.0		0.90		0.98	 	1.02		1.2
	0.66		0.0 			0		-0.66			0.9			1.1		2.0		0.9		2.0		1.1
	0.417	0.2			1.0		0.4166		0.2			1.0		0.0		1.052	0.0		0.0/
10147  'USRMDL'      1      'SIAUX1'     107   0  5  9   2  4
	2       'SIPIF6'      71      15    0
	0.005        0.005      1.0000         1        1          -1       1         -1   4.4/
	//////////////////////// Sungrow Inverter BUS: 10251 /////////////////////////////
10251 'USRMDL' 1 'SGCVTF0131101' 101 1 20 90 60 200
	20	1	1	4	10251		0	2	3	1	0
	0	1	1	0	1		1	0	0	17	'WAUX'
	60.0		30.0			0.01		0.0			0.0			0.0		0.0		0.0		0.0		0.0
	0.900	1800.00		0.850	10.00		0.80			10.0		0.20		10.0		0.20		10.0
	1.100	1800.00		1.150	10.00		1.200		2.00		1.200	2.0		1.200	2.0
	58.700	1800.00		57.400	30.00		57.00		20.00	57.00	20.00	57.00	20.0
	61.00	1800.00		61.60	30.00		62.50		13.00	62.50	13.00	62.50	13.0
	57.00	63.00		59.82	60.18		57.0			59.8		60.2		62.5 	0.0		0.0
	0.0		0.0			0.0		0.0			0.0			0.0		0.90		0.98	 	1.02		1.2
	0.66		0.0 			0		-0.66			0.9			1.1		2.0		0.9		2.0		1.1
	0.417	0.2			1.0		0.4166		0.2			1.0		0.0		1.052	0.0		0.0/
10251  'USRMDL'      1      'SIAUX1'     107   0  5  9   2  4
	2       'SIPIF6'      71      15    0
	0.005        0.005      1.0000         1        1          -1       1         -1   4.4/
	//////////////////////// Sungrow Inverter BUS: 10252 /////////////////////////////
10252 'USRMDL' 1 'SGCVTF0131101' 101 1 20 90 60 200
	20	1	1	4	10252		0	2	3	1	0
	0	1	1	0	1		1	0	0	17	'WAUX'
	60.0		30.0			0.01		0.0			0.0			0.0		0.0		0.0		0.0		0.0
	0.900	1800.00		0.850	10.00		0.80			10.0		0.20		10.0		0.20		10.0
	1.100	1800.00		1.150	10.00		1.200		2.00		1.200	2.0		1.200	2.0
	58.700	1800.00		57.400	30.00		57.00		20.00	57.00	20.00	57.00	20.0
	61.00	1800.00		61.60	30.00		62.50		13.00	62.50	13.00	62.50	13.0
	57.00	63.00		59.82	60.18		57.0			59.8		60.2		62.5 	0.0		0.0
	0.0		0.0			0.0		0.0			0.0			0.0		0.90		0.98	 	1.02		1.2
	0.66		0.0 			0		-0.66			0.9			1.1		2.0		0.9		2.0		1.1
	0.417	0.2			1.0		0.4166		0.2			1.0		0.0		1.052	0.0		0.0/
10252  'USRMDL'      1      'SIAUX1'     107   0  5  9   2  4
	2       'SIPIF6'      71      15    0
	0.005        0.005      1.0000         1        1          -1       1         -1   4.4/
	//////////////////////// Sungrow Inverter BUS: 10253 /////////////////////////////
10253 'USRMDL' 1 'SGCVTF0131101' 101 1 20 90 60 200
	20	1	1	4	10253		0	2	3	1	0
	0	1	1	0	1		1	0	0	17	'WAUX'
	60.0		30.0			0.01		0.0			0.0			0.0		0.0		0.0		0.0		0.0
	0.900	1800.00		0.850	10.00		0.80			10.0		0.20		10.0		0.20		10.0
	1.100	1800.00		1.150	10.00		1.200		2.00		1.200	2.0		1.200	2.0
	58.700	1800.00		57.400	30.00		57.00		20.00	57.00	20.00	57.00	20.0
	61.00	1800.00		61.60	30.00		62.50		13.00	62.50	13.00	62.50	13.0
	57.00	63.00		59.82	60.18		57.0			59.8		60.2		62.5 	0.0		0.0
	0.0		0.0			0.0		0.0			0.0			0.0		0.90		0.98	 	1.02		1.2
	0.66		0.0 			0		-0.66			0.9			1.1		2.0		0.9		2.0		1.1
	0.417	0.2			1.0		0.4166		0.2			1.0		0.0		1.052	0.0		0.0/
10253  'USRMDL'      1      'SIAUX1'     107   0  5  9   2  4
	2       'SIPIF6'      71      15    0
	0.005        0.005      1.0000         1        1          -1       1         -1   4.4/
	//////////////////////// Sungrow Inverter BUS: 10255 /////////////////////////////
10255 'USRMDL' 1 'SGCVTF0131101' 101 1 20 90 60 200
	20	1	1	4	10255		0	2	3	1	0
	0	1	1	0	1		1	0	0	17	'WAUX'
	60.0		30.0			0.01		0.0			0.0			0.0		0.0		0.0		0.0		0.0
	0.900	1800.00		0.850	10.00		0.80			10.0		0.20		10.0		0.20		10.0
	1.100	1800.00		1.150	10.00		1.200		2.00		1.200	2.0		1.200	2.0
	58.700	1800.00		57.400	30.00		57.00		20.00	57.00	20.00	57.00	20.0
	61.00	1800.00		61.60	30.00		62.50		13.00	62.50	13.00	62.50	13.0
	57.00	63.00		59.82	60.18		57.0			59.8		60.2		62.5 	0.0		0.0
	0.0		0.0			0.0		0.0			0.0			0.0		0.90		0.98	 	1.02		1.2
	0.66		0.0 			0		-0.66			0.9			1.1		2.0		0.9		2.0		1.1
	0.417	0.2			1.0		0.4166		0.2			1.0		0.0		1.052	0.0		0.0/
10255  'USRMDL'      1      'SIAUX1'     107   0  5  9   2  4
	2       'SIPIF6'      71      15    0
	0.005        0.005      1.0000         1        1          -1       1         -1   4.4/
	//////////////////////// Sungrow Inverter BUS: 10256 /////////////////////////////
10256 'USRMDL' 1 'SGCVTF0131101' 101 1 20 90 60 200
	20	1	1	4	10256		0	2	3	1	0
	0	1	1	0	1		1	0	0	17	'WAUX'
	60.0		30.0			0.01		0.0			0.0			0.0		0.0		0.0		0.0		0.0
	0.900	1800.00		0.850	10.00		0.80			10.0		0.20		10.0		0.20		10.0
	1.100	1800.00		1.150	10.00		1.200		2.00		1.200	2.0		1.200	2.0
	58.700	1800.00		57.400	30.00		57.00		20.00	57.00	20.00	57.00	20.0
	61.00	1800.00		61.60	30.00		62.50		13.00	62.50	13.00	62.50	13.0