10 'GENROU' 1 6 0.05 1 0.05 3 0 1.4 1.35 0.3 0.6 0.2 0.1 0.03 0.4 /
12 'GENROU' 1 6 0.05 1 0.05 3 0 1.4 1.35 0.3 0.6 0.2 0.1 0.03 0.4 /
25 'GENROU' 1 6 0.05 1 0.05 3 0 1.4 1.35 0.3 0.6 0.2 0.1 0.03 0.4 /
26 'GENROU' 1 6 0.05 1 0.05 3 0 1.4 1.35 0.3 0.6 0.2 0.1 0.03 0.4 /
31 'GENROU' 1 6 0.05 1 0.05 3 0 1.4 1.35 0.3 0.6 0.2 0.1 0.03 0.4 /
46 'GENROU' 1 6 0.05 1 0.05 3 0 1.4 1.35 0.3 0.6 0.2 0.1 0.03 0.4 /
49 'GENROU' 1 6 0.05 1 0.05 3 0 1.4 1.35 0.3 0.6 0.2 0.1 0.03 0.4 /
54 'GENROU' 1 6 0.05 1 0.05 3 0 1.4 1.35 0.3 0.6 0.2 0.1 0.03 0.4 /
59 'GENROU' 1 6 0.05 1 0.05 3 0 1.4 1.35 0.3 0.6 0.2 0.1 0.03 0.4 /
61 'GENROU' 1 6 0.05 1 0.05 3 0 1.4 1.35 0.3 0.6 0.2 0.1 0.03 0.4 /
65 'GENROU' 1 6 0.05 1 0.05 3 0 1.4 1.35 0.3 0.6 0.2 0.1 0.03 0.4 /
66 'GENROU' 1 6 0.05 1 0.05 3 0 1.4 1.35 0.3 0.6 0.2 0.1 0.03 0.4 /
69 'GENROU' 1 6 0.05 1 0.05 3 0 1.4 1.35 0.3 0.6 0.2 0.1 0.03 0.4 /
80 'GENROU' 1 6 0.05 1 0.05 3 0 1.4 1.35 0.3 0.6 0.2 0.1 0.03 0.4 /
87 'GENROU' 1 6 0.05 1 0.05 3 0 1.4 1.35 0.3 0.6 0.2 0.1 0.03 0.4 /
89 'GENROU' 1 6 0.05 1 0.05 3 0 1.4 1.35 0.3 0.6 0.2 0.1 0.03 0.4 /
100 'GENROU' 1 6 0.05 1 0.05 3 0 1.4 1.35 0.3 0.6 0.2 0.1 0.03 0.4 /
103 'GENROU' 1 6 0.05 1 0.05 3 0 1.4 1.35 0.3 0.6 0.2 0.1 0.03 0.4 /
111 'GENROU' 1 6 0.05 1 0.05 3 0 1.4 1.35 0.3 0.6 0.2 0.1 0.03 0.4 /
10 'SEXS' 1 0.10 10. 200. 0.05 0.0 4.0/
12 'SEXS' 1 0.10 10. 200. 0.05 0.0 4.0/
25 'SEXS' 1 0.10 10. 200. 0.05 0.0 4.0/
26 'SEXS' 1 0.10 10. 200. 0.05 0.0 4.0/
31 'SEXS' 1 0.10 10. 200. 0.05 0.0 4.0/
46 'SEXS' 1 0.10 10. 200. 0.05 0.0 4.0/
49 'SEXS' 1 0.10 10. 200. 0.05 0.0 4.0/
54 'SEXS' 1 0.10 10. 200. 0.05 0.0 4.0/
59 'SEXS' 1 0.10 10. 200. 0.05 0.0 4.0/
61 'SEXS' 1 0.10 10. 200. 0.05 0.0 4.0/
65 'SEXS' 1 0.10 10. 200. 0.05 0.0 4.0/
66 'SEXS' 1 0.10 10. 200. 0.05 0.0 4.0/
69 'SEXS' 1 0.10 10. 200. 0.05 0.0 4.0/
80 'SEXS' 1 0.10 10. 200. 0.05 0.0 4.0/
87 'SEXS' 1 0.10 10. 200. 0.05 0.0 4.0/
89 'SEXS' 1 0.10 10. 200. 0.05 0.0 4.0/
100 'SEXS' 1 0.10 10. 200. 0.05 0.0 4.0/
103 'SEXS' 1 0.10 10. 200. 0.05 0.0 4.0/
111 'SEXS' 1 0.10 10. 200. 0.05 0.0 4.0/